192

Ti    0.000000    0.000000    0.000000
Ti    1.891270    1.891270    4.807511
Ti    0.000000    1.891270    2.403755
Ti    1.891270    0.000000    7.211266
Ti    0.000000    3.782540    0.000000
Ti    1.891270   13.238889    4.807511
Ti   11.347620    1.891270    2.403755
Ti    5.673810    0.000000    7.211266
Ti    1.891270    3.782540    7.211266
Ti    0.000000   13.238889    2.403755
Ti    5.673810    1.891270    4.807511
Ti   11.347620    0.000000    0.000000
Ti    3.782540    0.000000    0.000000
Ti   13.238889    1.891270    4.807511
Ti   13.238889    0.000000    7.211266
Ti    3.782540    1.891270    2.403755
Ti    1.891270    5.673810    4.807511
Ti    0.000000   11.347620    0.000000
Ti    0.000000    5.673810    2.403755
Ti    1.891270   11.347620    7.211266
Ti    0.000000    7.565080    0.000000
Ti    1.891270    9.456350    4.807511
Ti    7.565080    1.891270    2.403755
Ti    9.456350    0.000000    7.211266
Ti    1.891270    7.565080    7.211266
Ti    0.000000    9.456350    2.403755
Ti    9.456350    1.891270    4.807511
Ti    7.565080    0.000000    0.000000
Ti    3.782540    3.782540    0.000000
Ti   13.238889   13.238889    4.807511
Ti   11.347620    5.673810    2.403755
Ti    5.673810   11.347620    7.211266
Ti   13.238889    3.782540    7.211266
Ti    3.782540   13.238889    2.403755
Ti    5.673810    5.673810    4.807511
Ti   11.347620   11.347620    0.000000
Ti   11.347620   13.238889    2.403755
Ti    5.673810    3.782540    7.211266
Ti    3.782540   11.347620    0.000000
Ti   13.238889    5.673810    4.807511
Ti    5.673810   13.238889    4.807511
Ti   11.347620    3.782540    0.000000
Ti   13.238889   11.347620    7.211266
Ti    3.782540    5.673810    2.403755
Ti    3.782540    7.565080    0.000000
Ti   13.238889    9.456350    4.807511
Ti    7.565080    5.673810    2.403755
Ti    9.456350   11.347620    7.211266
Ti   13.238889    7.565080    7.211266
Ti    3.782540    9.456350    2.403755
Ti    9.456350    5.673810    4.807511
Ti    7.565080   11.347620    0.000000
Ti   11.347620    9.456350    2.403755
Ti    5.673810    7.565080    7.211266
Ti    5.673810    9.456350    4.807511
Ti   11.347620    7.565080    0.000000
Ti    9.456350    3.782540    7.211266
Ti    7.565080   13.238889    2.403755
Ti    7.565080    3.782540    0.000000
Ti    9.456350   13.238889    4.807511
Ti    7.565080    7.565080    0.000000
Ti    9.456350    9.456350    4.807511
Ti    7.565080    9.456350    2.403755
Ti    9.456350    7.565080    7.211266
 O    0.000000    0.000000    1.991771
 O    1.891270    1.891270    6.799282
 O    0.000000    1.891270    4.395526
 O    1.891270    0.000000    9.203037
 O    1.891270    0.000000    5.219495
 O    0.000000    1.891270    0.411985
 O    1.891270    1.891270    2.815740
 O    0.000000    0.000000    7.623251
 O    0.000000    3.782540    1.991771
 O    1.891270   13.238889    6.799282
 O   11.347620    1.891270    4.395526
 O    5.673810    0.000000    9.203037
 O    1.891270    3.782540    5.219495
 O    0.000000   13.238889    0.411985
 O    5.673810    1.891270    2.815740
 O   11.347620    0.000000    7.623251
 O    3.782540    0.000000    7.623251
 O   13.238889    1.891270    2.815740
 O   13.238889    0.000000    9.203037
 O    3.782540    1.891270    4.395526
 O    1.891270    5.673810    6.799282
 O    0.000000   11.347620    1.991771
 O    0.000000    5.673810    0.411985
 O    1.891270   11.347620    5.219495
 O    0.000000    7.565080    1.991771
 O    1.891270    9.456350    6.799282
 O    7.565080    1.891270    4.395526
 O    9.456350    0.000000    9.203037
 O    1.891270    7.565080    5.219495
 O    0.000000    9.456350    0.411985
 O    9.456350    1.891270    2.815740
 O    7.565080    0.000000    7.623251
 O    3.782540    0.000000    1.991771
 O   13.238889    1.891270    6.799282
 O    0.000000    5.673810    4.395526
 O    1.891270   11.347620    9.203037
 O   13.238889    0.000000    5.219495
 O    3.782540    1.891270    0.411985
 O    1.891270    5.673810    2.815740
 O    0.000000   11.347620    7.623251
 O   11.347620    1.891270    0.411985
 O    5.673810    0.000000    5.219495
 O    5.673810    1.891270    6.799282
 O   11.347620    0.000000    1.991771
 O    1.891270    3.782540    9.203037
 O    0.000000   13.238889    4.395526
 O    0.000000    3.782540    7.623251
 O    1.891270   13.238889    2.815740
 O    3.782540    3.782540    1.991771
 O   13.238889   13.238889    6.799282
 O   11.347620    5.673810    4.395526
 O    5.673810   11.347620    9.203037
 O   13.238889    3.782540    5.219495
 O    3.782540   13.238889    0.411985
 O    5.673810    5.673810    2.815740
 O   11.347620   11.347620    7.623251
 O   11.347620   13.238889    0.411985
 O    5.673810    3.782540    5.219495
 O    3.782540   11.347620    7.623251
 O   13.238889    5.673810    2.815740
 O    5.673810   13.238889    6.799282
 O   11.347620    3.782540    1.991771
 O   13.238889   11.347620    9.203037
 O    3.782540    5.673810    4.395526
 O    5.673810    5.673810    6.799282
 O   11.347620   11.347620    1.991771
 O   13.238889    3.782540    9.203037
 O    3.782540   13.238889    4.395526
 O   11.347620    5.673810    0.411985
 O    5.673810   11.347620    5.219495
 O    3.782540    3.782540    7.623251
 O   13.238889   13.238889    2.815740
 O   13.238889   11.347620    5.219495
 O    3.782540    5.673810    0.411985
 O    5.673810   13.238889    2.815740
 O   11.347620    3.782540    7.623251
 O    3.782540   11.347620    1.991771
 O   13.238889    5.673810    6.799282
 O   11.347620   13.238889    4.395526
 O    5.673810    3.782540    9.203037
 O    3.782540    7.565080    1.991771
 O   13.238889    9.456350    6.799282
 O    7.565080    5.673810    4.395526
 O    9.456350   11.347620    9.203037
 O   13.238889    7.565080    5.219495
 O    3.782540    9.456350    0.411985
 O    9.456350    5.673810    2.815740
 O    7.565080   11.347620    7.623251
 O   11.347620    9.456350    0.411985
 O    5.673810    7.565080    5.219495
 O    5.673810    9.456350    6.799282
 O   11.347620    7.565080    1.991771
 O    9.456350    3.782540    9.203037
 O    7.565080   13.238889    4.395526
 O    7.565080    3.782540    7.623251
 O    9.456350   13.238889    2.815740
 O    7.565080    0.000000    1.991771
 O    9.456350    1.891270    6.799282
 O    0.000000    9.456350    4.395526
 O    1.891270    7.565080    9.203037
 O    9.456350    0.000000    5.219495
 O    7.565080    1.891270    0.411985
 O    1.891270    9.456350    2.815740
 O    0.000000    7.565080    7.623251
 O    7.565080    3.782540    1.991771
 O    9.456350   13.238889    6.799282
 O   11.347620    9.456350    4.395526
 O    5.673810    7.565080    9.203037
 O    9.456350    3.782540    5.219495
 O    7.565080   13.238889    0.411985
 O    5.673810    9.456350    2.815740
 O   11.347620    7.565080    7.623251
 O    3.782540    7.565080    7.623251
 O   13.238889    9.456350    2.815740
 O   13.238889    7.565080    9.203037
 O    3.782540    9.456350    4.395526
 O    9.456350    5.673810    6.799282
 O    7.565080   11.347620    1.991771
 O    7.565080    5.673810    0.411985
 O    9.456350   11.347620    5.219495
 O    7.565080    7.565080    1.991771
 O    9.456350    9.456350    6.799282
 O    7.565080    9.456350    4.395526
 O    9.456350    7.565080    9.203037
 O    9.456350    7.565080    5.219495
 O    7.565080    9.456350    0.411985
 O    9.456350    9.456350    2.815740
 O    7.565080    7.565080    7.623251
