48

Ti    0.000000    0.000000    0.000000
Ti    1.891270    1.891270    4.807511
Ti    0.000000    1.891270    2.403755
Ti    1.891270    0.000000    7.211266
Ti    0.000000    3.782540    0.000000
Ti    1.891270    5.673810    4.807511
Ti    3.782540    1.891270    2.403755
Ti    5.673810    0.000000    7.211266
Ti    1.891270    3.782540    7.211266
Ti    0.000000    5.673810    2.403755
Ti    5.673810    1.891270    4.807511
Ti    3.782540    0.000000    0.000000
Ti    3.782540    3.782540    0.000000
Ti    5.673810    5.673810    4.807511
Ti    3.782540    5.673810    2.403755
Ti    5.673810    3.782540    7.211266
 O    0.000000    0.000000    1.991772
 O    1.891270    1.891270    6.799283
 O    0.000000    1.891270    4.395527
 O    1.891270    0.000000    9.203038
 O    1.891270    0.000000    5.219494
 O    0.000000    1.891270    0.411983
 O    1.891270    1.891270    2.815739
 O    0.000000    0.000000    7.623250
 O    0.000000    3.782540    1.991772
 O    1.891270    5.673810    6.799283
 O    3.782540    1.891270    4.395527
 O    5.673810    0.000000    9.203038
 O    1.891270    3.782540    5.219494
 O    0.000000    5.673810    0.411983
 O    5.673810    1.891270    2.815739
 O    3.782540    0.000000    7.623250
 O    3.782540    0.000000    1.991772
 O    5.673810    1.891270    6.799283
 O    0.000000    5.673810    4.395527
 O    1.891270    3.782540    9.203038
 O    5.673810    0.000000    5.219494
 O    3.782540    1.891270    0.411983
 O    1.891270    5.673810    2.815739
 O    0.000000    3.782540    7.623250
 O    3.782540    3.782540    1.991772
 O    5.673810    5.673810    6.799283
 O    3.782540    5.673810    4.395527
 O    5.673810    3.782540    9.203038
 O    5.673810    3.782540    5.219494
 O    3.782540    5.673810    0.411983
 O    5.673810    5.673810    2.815739
 O    3.782540    3.782540    7.623250
